Version 4
SHEET 1 2344 836
WIRE 576 -208 576 -256
WIRE 800 -208 800 -256
WIRE 992 -176 992 -224
WIRE 576 -96 576 -128
WIRE 688 -96 576 -96
WIRE 800 -96 800 -128
WIRE 800 -96 688 -96
WIRE 688 -64 688 -96
WIRE 992 -64 992 -96
WIRE 1824 -48 1824 -96
WIRE 1824 -48 1712 -48
WIRE 1936 -48 1824 -48
WIRE 1712 0 1712 -48
WIRE 1936 0 1936 -48
WIRE 96 16 32 16
WIRE 240 16 176 16
WIRE 288 16 240 16
WIRE 432 16 352 16
WIRE 480 16 432 16
WIRE 1824 16 1760 16
WIRE 1888 16 1824 16
WIRE 240 80 240 16
WIRE 432 80 432 16
WIRE 1712 128 1712 96
WIRE 1824 128 1824 16
WIRE 1824 128 1712 128
WIRE 1936 144 1936 96
WIRE 2016 144 1936 144
WIRE 1712 192 1712 128
WIRE 1936 192 1936 144
WIRE 240 208 240 144
WIRE 336 208 240 208
WIRE 432 208 432 160
WIRE 432 208 336 208
WIRE 336 240 336 208
WIRE 1344 256 1344 192
WIRE 1664 272 1568 272
WIRE 2032 272 1984 272
WIRE 1568 320 1568 272
WIRE 1712 336 1712 288
WIRE 1824 336 1712 336
WIRE 1936 336 1936 288
WIRE 1936 336 1824 336
WIRE 1344 368 1344 336
WIRE 1440 368 1344 368
WIRE 1344 400 1344 368
WIRE 1824 400 1824 336
WIRE -96 448 -160 448
WIRE 64 448 -16 448
WIRE 352 464 288 464
WIRE 512 464 432 464
WIRE 1440 480 1440 368
WIRE 1440 480 1392 480
WIRE 1776 480 1440 480
WIRE 1344 528 1344 496
WIRE 1824 528 1824 496
WIRE -448 640 -496 640
WIRE -304 640 -384 640
WIRE -160 640 -160 448
WIRE -160 640 -224 640
WIRE 400 640 400 608
WIRE 64 656 64 448
WIRE 144 656 64 656
WIRE 288 656 288 464
WIRE 288 656 224 656
WIRE 368 656 288 656
WIRE 512 672 512 464
WIRE 512 672 432 672
WIRE 368 688 336 688
WIRE 336 736 336 688
WIRE 400 736 400 704
FLAG 688 -64 0
FLAG 576 -256 +Vdd
FLAG 800 -256 -Vdd
FLAG 336 736 0
FLAG 400 608 +Vdd
FLAG 400 736 -Vdd
FLAG 992 -64 0
FLAG 992 -224 input_signal
FLAG 480 16 filter_signal
FLAG 32 16 input_signal
FLAG 336 240 0
FLAG -496 640 filter_signal
FLAG 2016 144 Opamp_out
FLAG 1568 320 0
FLAG 2032 272 Opamp_in-
FLAG 64 656 Opamp_out
FLAG -160 640 Opamp_in-
FLAG 1824 -96 +Vdd
FLAG 1344 192 +Vdd
FLAG 1344 528 0
FLAG 1824 528 0
FLAG 1568 272 Opamp_in+
SYMBOL voltage 576 -224 R0
WINDOW 123 0 0 Left 0
WINDOW 39 0 0 Left 0
SYMATTR InstName +Vdd
SYMATTR Value 5
SYMBOL voltage 800 -112 R180
WINDOW 123 0 0 Left 0
WINDOW 39 0 0 Left 0
SYMATTR InstName -Vdd
SYMATTR Value 5
SYMBOL res 0 432 R90
WINDOW 0 0 56 VBottom 2
WINDOW 3 32 56 VTop 2
SYMATTR InstName R2
SYMATTR Value 10k
SYMBOL res -208 624 R90
WINDOW 0 0 56 VBottom 2
WINDOW 3 32 56 VTop 2
SYMATTR InstName R3
SYMATTR Value 5k
SYMBOL OpAmps\\OP227 400 608 R0
SYMATTR InstName U2
SYMBOL res 448 448 R90
WINDOW 0 0 56 VBottom 2
WINDOW 3 32 56 VTop 2
SYMATTR InstName R1
SYMATTR Value 100k
SYMBOL res 240 640 R90
WINDOW 0 0 56 VBottom 2
WINDOW 3 32 56 VTop 2
SYMATTR InstName R4
SYMATTR Value 1k
SYMBOL cap -384 624 R90
WINDOW 0 0 32 VBottom 2
WINDOW 3 32 32 VTop 2
SYMATTR InstName C1
SYMATTR Value 1µ
SYMBOL voltage 992 -192 R0
WINDOW 123 24 124 Left 2
WINDOW 39 0 0 Left 0
SYMATTR InstName Mic
SYMATTR Value SINE(5 10m 1k)
SYMBOL cap 352 0 R90
WINDOW 0 0 32 VBottom 2
WINDOW 3 32 32 VTop 2
SYMATTR InstName C_HPF
SYMATTR Value 1µ
SYMBOL cap 256 144 R180
WINDOW 0 24 56 Left 2
WINDOW 3 24 8 Left 2
SYMATTR InstName C_LPF
SYMATTR Value 1n
SYMBOL res 416 64 R0
SYMATTR InstName R_HPF
SYMATTR Value 10k
SYMBOL res 192 0 R90
WINDOW 0 0 56 VBottom 2
WINDOW 3 32 56 VTop 2
SYMATTR InstName R_LPF
SYMATTR Value 6.8k
SYMBOL nmos 1888 96 M180
SYMATTR InstName M1
SYMBOL nmos 1760 96 R180
SYMATTR InstName M2
SYMBOL pmos 1664 192 R0
SYMATTR InstName M3
SYMBOL pmos 1984 192 M0
SYMATTR InstName M4
SYMBOL pmos 1392 400 M0
SYMATTR InstName M5
SYMBOL pmos 1776 400 R0
SYMATTR InstName M6
SYMBOL res 1328 240 R0
SYMATTR InstName R5
TEXT 960 -24 Left 2 !.tran 1
TEXT 1064 -320 Left 2 ;Microphone
TEXT 608 -392 Left 2 ;Opamp Power
